MEGA__CHIL/savnw_cov_32_loads.raw
0,   100.00,  32, 0, 1, 60.00     / PSS(R)E 32 RAW created by rawd32  MON, MAR 17 2025  13:30
PSS(R)E PROGRAM APPLICATION GUIDE EXAMPLE
BASE CASE INCLUDING SEQUENCE DATA
   101,'NUC-A       ',  21.6000,2,   1,  77,  11,1.02000,  16.5463
   102,'NUC-B       ',  21.6000,2,   1,  77,  11,1.02000,  16.5463
   151,'NUCPANT     ', 500.0000,1,   1,   1,   1,1.01188,  10.8884
   152,'MID500      ', 500.0000,1,   1,   1,   1,1.01698,  -1.1165
   153,'MID230      ', 230.0000,1,   1,   1,   1,0.99346,  -3.2357
   154,'DOWNTN      ', 230.0000,1,   1,   1,   1,0.93918,  -9.8823
   201,'HYDRO       ', 500.0000,1,   2,   2,  22,1.04000,   6.1595
   202,'EAST500     ', 500.0000,1,   2,   2,   2,1.00878,  -1.3179
   203,'EAST230     ', 230.0000,1,   2,   2,   2,0.96664,  -6.9167
   204,'SUB500      ', 500.0000,1,   2,   2,   2,0.97889,  -3.7325
   205,'SUB230      ', 230.0000,1,   2,   2,   2,0.94925,  -9.1769
   206,'URBGEN      ',  18.0000,2,   2,   2,  22,1.02384,  -2.9698
   211,'HYDRO_G     ',  20.0000,2,   2,   2,  22,1.04034,  12.9205
  3001,'MINE        ', 230.0000,1,   5,   5,  55,1.02984,  -1.3727
  3002,'E. MINE     ', 500.0000,1,   5,   5,   5,1.02796,  -1.8252
  3003,'S. MINE     ', 230.0000,1,   5,   5,   5,1.02340,  -2.2534
  3004,'WEST        ', 500.0000,1,   5,   5,   5,1.01655,  -3.4292
  3005,'WEST        ', 230.0000,1,   5,   5,   5,0.99495,  -5.1791
  3006,'UPTOWN      ', 230.0000,1,   5,   5,   5,0.99442,  -3.7919
  3007,'RURAL       ', 230.0000,1,   5,   5,   5,0.96390,  -8.5357
  3008,'CATDOG      ', 230.0000,1,   5,   5,  55,0.95883,  -9.0463
  3011,'MINE_G      ',  13.8000,3,   5,   5,  55,1.04000,   0.0000
  3018,'CATDOG_G    ',  13.8000,2,   5,   5,  55,1.02198,  -4.0798
 0 /End of Bus data, Begin Load data
   153,'1 ',1,   1,   1,     0.000,     0.000,   201.316,     0.000,     0.000,  -101.320,   1,1
   154,'1 ',1,   2,   1,     0.000,     0.000,   638.856,     0.000,     0.000,  -510.172,   1,1
   154,'2 ',1,   2,   1,     0.000,     0.000,   425.904,     0.000,     0.000,  -396.800, 100,1
   203,'1 ',1,   2,   2,     0.000,     0.000,   310.353,     0.000,     0.000,  -160.532,   2,1
   205,'1 ',1,   2,   2,     0.000,     0.000,  1264.158,     0.000,     0.000,  -776.852,   2,1
  3005,'1 ',1,   5,   5,     0.000,     0.000,   100.508,     0.000,     0.000,   -50.509,   5,1
  3007,'1 ',1,   5,   5,     0.000,     0.000,   207.490,     0.000,     0.000,   -80.723,   5,1
  3008,'1 ',1,   5,   5,     0.000,     0.000,   208.587,     0.000,     0.000,   -81.578,   5,1
 0 /End of Load data, Begin Fixed shunt data
   151,'1 ',1,     0.000,  -600.000
   154,'1 ',1,     0.000,   300.000
   201,'1 ',1,     0.000,   300.000
   203,'1 ',1,     0.000,    50.000
   205,'1 ',1,     0.000,   300.000
 0 /End of Fixed shunt data, Begin Generator data
   101,'1 ',   750.000,    81.308,   600.000,  -100.000,1.02000,     0,   900.000, 1.00000E-2, 3.00000E-1, 0.00000E+0, 0.00000E+0,1.00000,1,  100.0,   810.000,     0.000,  11,0.6667,   1,0.3333
   102,'1 ',   750.000,    81.308,   600.000,  -100.000,1.02000,     0,   900.000, 1.00000E-2, 3.00000E-1, 0.00000E+0, 0.00000E+0,1.00000,1,  100.0,   810.000,     0.000,  11,0.6667,   1,0.3333
   206,'1 ',   800.000,   600.000,   600.000,     0.000,0.98000,   205,  1000.000, 1.00000E-2, 2.50000E-1, 0.00000E+0, 0.00000E+0,1.00000,1,  100.0,   900.000,     0.000,   2,0.4000,  22,0.6000
   211,'1 ',   600.000,    17.312,   400.000,  -100.000,1.04000,   201,   725.000, 1.00000E-2, 2.60000E-1, 0.00000E+0, 0.00000E+0,1.00000,1,  100.0,   616.250,     0.000,   2,0.4000,  22,0.6000
  3011,'1 ',   258.638,   103.607,   600.000,  -100.000,1.04000,     0,  1000.000, 1.00000E-2, 3.50000E-1, 0.00000E+0, 0.00000E+0,1.00000,1,  100.0,   900.000,     0.000,  55,0.3846,   5,0.3077,  22,0.2308,  11,0.0769
  3018,'1 ',   100.000,    80.000,    80.000,     0.000,1.02000,  3008,   130.000, 1.00000E-2, 3.50000E-1, 0.00000E+0, 0.00000E+0,1.00000,1,  100.0,   117.000,     0.000,  55,0.5556,   5,0.4444
 0 /End of Generator data, Begin Branch data
   151,    152,'1 ', 2.60000E-3, 4.60000E-2,   3.50000, 1200.00, 1300.00,    1.00,  0.00000,  0.00000,  0.00000,  0.00000,1,1,   0.00,   1,1.0000
   151,    152,'2 ', 2.60000E-3, 4.60000E-2,   3.50000, 1200.00, 1300.00,    1.00,  0.00000,  0.00000,  0.00000,  0.00000,1,1,   0.00,   1,1.0000
   151,    201,'1 ', 1.00000E-3, 1.50000E-2,   1.20000, 1200.00, 1300.00,    1.00,  0.00000,  0.00000,  0.00000,  0.00000,1,1,   0.00,   1,1.0000
   152,    202,'1 ', 8.00000E-4, 1.00000E-2,   0.95000, 1200.00, 1300.00,    1.00,  0.00000,  0.00000,  0.00000,  0.00000,1,2,   0.00,   1,1.0000
   152,   3004,'1 ', 3.00000E-3, 3.00000E-2,   2.50000,    0.00,    0.00,    1.00,  0.00000,  0.00000,  0.00000,  0.00000,1,1,   0.00,   1,1.0000
   153,    154,'1 ', 5.00000E-3, 4.50000E-2,   0.10000,  300.00,  350.00,    1.00,  0.00000,  0.00000,  0.00000,  0.00000,1,1,   0.00,   1,0.7500, 100,0.2500
   153,    154,'2 ', 6.00000E-3, 5.40000E-2,   0.15000,  300.00,  350.00,    1.00,  0.00000,  0.00000,  0.00000,  0.00000,1,1,   0.00,   1,1.0000
   153,   3006,'1 ', 1.00000E-3, 1.20000E-2,   0.03000,    0.00,    0.00,    1.00,  0.00000,  0.00000,  0.00000,  0.00000,1,1,   0.00,   1,1.0000
   154,    203,'1 ', 4.00000E-3, 4.00000E-2,   0.10000,  200.00,  250.00,    1.00,  0.00000,  0.00000,  0.00000,  0.00000,1,1,   0.00,   1,1.0000
   154,    205,'1 ', 3.30000E-4, 3.33000E-3,   0.09000,  600.00,  660.00,    1.00,  0.00000,  0.00000,  0.00000,  0.00000,1,1,   0.00,   1,1.0000
   154,   3008,'1 ', 2.70000E-3, 2.20000E-2,   0.30000,  400.00,  440.00,    1.00,  0.00000,  0.00000,  0.00000,  0.00000,1,1,   0.00,   1,1.0000
   201,    202,'1 ', 2.00000E-3, 2.50000E-2,   2.00000, 1200.00, 1300.00,    1.00,  0.00000,  0.00000,  0.00000,  0.00000,1,1,   0.00,  22,1.0000
   201,    204,'1 ', 3.00000E-3, 3.00000E-2,   2.50000, 1200.00, 1300.00,    1.00,  0.00000,  0.00000,  0.00000,  0.00000,1,1,   0.00,  22,1.0000
   203,    205,'1 ', 5.00000E-3, 4.50000E-2,   0.08000,  200.00,  250.00,    1.00,  0.00000,  0.00000,  0.00000,  0.00000,1,2,   0.00,   2,1.0000
   203,    205,'2 ', 5.00000E-3, 4.50000E-2,   0.08000,  200.00,  250.00,    1.00,  0.00000,  0.00000,  0.00000,  0.00000,1,2,   0.00,   2,1.0000
  3001,   3003,'1 ',-0.00000E+0, 8.00000E-3,   0.00000,    0.00,    0.00,    1.00,  0.00000,  0.00000,  0.00000,  0.00000,1,1,   0.00,  55,1.0000
  3002,   3004,'1 ', 6.00000E-3, 5.40000E-2,   0.09000,    0.00,    0.00,    1.00,  0.00000,  0.00000,  0.00000,  0.00000,1,1,   0.00,   5,1.0000
  3003,   3005,'1 ', 6.00000E-3, 5.40000E-2,   0.09000,    0.00,    0.00,    1.00,  0.00000,  0.00000,  0.00000,  0.00000,1,1,   0.00,   5,1.0000
  3003,   3005,'2 ', 6.00000E-3, 5.40000E-2,   0.09000,    0.00,    0.00,    1.00,  0.00000,  0.00000,  0.00000,  0.00000,1,1,   0.00,   5,1.0000
  3005,   3006,'1 ', 3.50000E-3, 3.00000E-2,   0.07000,    0.00,    0.00,    1.00,  0.00000,  0.00000,  0.00000,  0.00000,1,1,   0.00,   5,1.0000
  3005,   3007,'1 ', 3.00000E-3, 2.50000E-2,   0.06000,    0.00,    0.00,    1.00,  0.00000,  0.00000,  0.00000,  0.00000,1,1,   0.00,   5,1.0000
  3005,   3008,'1 ', 6.00000E-3, 5.00000E-2,   0.12000,    0.00,    0.00,    1.00,  0.00000,  0.00000,  0.00000,  0.00000,1,1,   0.00,   5,1.0000
  3007,   3008,'1 ', 3.00000E-3, 2.50000E-2,   0.06000,    0.00,    0.00,    1.00,  0.00000,  0.00000,  0.00000,  0.00000,1,1,   0.00,   5,1.0000
 0 /End of Branch data, Begin Transformer data
   151,   101,     0,'1 ',1,1,1, 0.00000E+0, 0.00000E+0,2,'                                        ',1,   1,1.0000
 3.00000E-4, 1.36000E-2,   100.00
1.00000,   0.000,   0.000,  1250.00,  1350.00,  1750.00, 0,      0, 1.10000, 0.90000, 1.10000, 0.90000,   5, 0, 0.00000, 0.00000,  0.000
1.00000,   0.000
   151,   102,     0,'1 ',1,1,1, 0.00000E+0, 0.00000E+0,2,'                                        ',1,   1,1.0000
 3.00000E-4, 1.36000E-2,   100.00
1.00000,   0.000,   0.000,  1250.00,  1350.00,  1750.00, 0,      0, 1.10000, 0.90000, 1.10000, 0.90000,   5, 0, 0.00000, 0.00000,  0.000
1.00000,   0.000
   152,   153,     0,'1 ',1,1,1, 0.00000E+0, 0.00000E+0,2,'                                        ',1,   1,1.0000
 0.00000E+0, 5.00000E-3,   100.00
1.00937,   0.000,   0.000,  2500.00,  3000.00,  3500.00, 1,    154, 1.05000, 0.95000, 1.00000, 0.98000,  33, 0, 0.00000, 0.00000,  0.000
1.00000,   0.000
   201,   211,     0,'1 ',1,1,1, 0.00000E+0, 0.00000E+0,2,'                                        ',1,  22,1.0000
 7.00000E-4, 2.12500E-2,   100.00
1.00000,   0.000,   0.000,   800.00,  1000.00,  1120.00, 0,    201, 1.10000, 0.90000, 1.05000, 0.95000,   5, 0, 0.00000, 0.00000,  0.000
1.00000,   0.000
   202,   203,     0,'1 ',1,1,1, 0.00000E+0, 0.00000E+0,2,'                                        ',1,   2,1.0000
 4.00000E-4, 1.62500E-2,   100.00
1.00000,   0.000,   0.000,   800.00,  1040.00,  1200.00, 3,      0,30.00000,-30.0000,555.0000,545.0000,  33, 0, 0.00000, 0.00000,  0.000
1.00000,   0.000
   204,   205,     0,'1 ',1,1,1, 0.00000E+0, 0.00000E+0,2,'                                        ',1,   2,1.0000
 3.00000E-4, 1.50000E-2,   100.00
1.00000,   0.000,   0.000,   800.00,  1040.00,  1200.00, 1,    205, 1.05000, 0.95000, 1.00000, 0.98000,  33, 0, 0.00000, 0.00000,  0.000
1.00000,   0.000
   205,   206,     0,'1 ',1,1,1, 0.00000E+0, 0.00000E+0,2,'                                        ',1,   2,1.0000
 2.60000E-4, 1.33300E-2,   100.00
1.00000,   0.000,   0.000,   900.00,  1080.00,  1350.00, 0,      0, 1.10000, 0.90000, 1.10000, 0.90000,   5, 0, 0.00000, 0.00000,  0.000
1.00000,   0.000
  3001,  3002,     0,'1 ',1,1,1, 0.00000E+0, 0.00000E+0,1,'                                        ',1,  55,1.0000
 3.00000E-4, 1.50000E-2,   100.00
1.00000,   0.000,   0.000,   800.00,  1040.00,  1200.00, 0,      0, 1.10000, 0.90000, 1.05000, 0.95000,  33, 0, 0.00000, 0.00000,  0.000
1.00000,   0.000
  3001,  3011,     0,'1 ',1,1,1, 0.00000E+0, 0.00000E+0,2,'                                        ',1,  55,1.0000
 2.00000E-4, 1.00000E-2,   100.00
1.00000,   0.000,   0.000,  1300.00,  1560.00,  1820.00, 0,      0, 1.10000, 0.90000, 1.05000, 0.95000,   5, 0, 0.00000, 0.00000,  0.000
1.00000,   0.000
  3004,  3005,     0,'1 ',1,1,1, 0.00000E+0, 0.00000E+0,1,'                                        ',1,   5,1.0000
 4.00000E-4, 1.62500E-2,   100.00
1.00000,   0.000,   0.000,   800.00,  1040.00,  1200.00, 0,      0, 1.10000, 0.90000, 1.05000, 0.95000,  33, 0, 0.00000, 0.00000,  0.000
1.00000,   0.000
  3008,  3018,     0,'1 ',1,1,1, 0.00000E+0, 0.00000E+0,2,'                                        ',1,  55,1.0000
 2.10000E-4, 8.50000E-2,   100.00
1.00000,   0.000,   0.000,   150.00,   200.00,   250.00, 0,      0, 1.10000, 0.90000, 1.05000, 0.95000,   5, 0, 0.00000, 0.00000,  0.000
1.00000,   0.000
 0 /End of Transformer data, Begin Area interchange data
   1,   101,   250.000,    10.000,'FLAPCO      '
   2,   206,  -100.000,    10.000,'LIGHTCO     '
   5,  3011,  -150.000,    10.000,'WORLD       '
 0 /End of Area interchange data, Begin Two-terminal dc line data
 0 /End of Two-terminal dc line data, Begin VSC dc line data
 0 /End of VSC dc line data, Begin Impedance correction table data
 0 /End of Impedance correction table data, Begin Multi-terminal dc line data
 0 /End of Multi-terminal dc line data, Begin Multi-section line data
   201,   205,'&1',1,   204
  3005,  3008,'&1',2,  3007
 0 /End of Multi-section line data, Begin Zone data
   1,'FIRST       '
   2,'SECOND      '
   5,'FIFTH       '
  77,'PLANT       '
 0 /End of Zone data, Begin Inter-area transfer data
   1,   2,'A',    70.00
   1,   2,'B',    30.00
   1,   5,'A',   100.00
   1,   5,'B',    50.00
 0 /End of Inter-area transfer data, Begin Owner data
   1,'TRAN 1      '
   2,'TRAN 2      '
   5,'TRAN 5      '
  11,'GEN 1       '
  22,'GEN 2       '
  55,'GEN 5       '
 100,'NO BUSES    '
 0 /End of Owner data, Begin FACTS device data
 0 /End of FACTS device data, Begin Switched shunt data
 0 /End of Switched shunt data, Begin GNE device data
 0 /End of GNE device data
Q
